Version 4
SHEET 1 2184 1124
WIRE 304 16 -16 16
WIRE 640 16 304 16
WIRE 976 16 640 16
WIRE 1664 16 976 16
WIRE 304 64 304 16
WIRE -16 80 -16 16
WIRE 640 80 640 16
WIRE 976 80 976 16
WIRE 1424 144 1360 144
WIRE 1584 144 1504 144
WIRE 1664 208 1664 16
WIRE 1792 208 1664 208
WIRE 2112 208 1888 208
WIRE 640 272 640 160
WIRE 640 272 496 272
WIRE 976 272 976 160
WIRE 1168 272 976 272
WIRE 1360 272 1360 144
WIRE 1360 272 1248 272
WIRE 1440 272 1360 272
WIRE 1584 288 1584 144
WIRE 1584 288 1504 288
WIRE 1440 304 1296 304
WIRE 2112 336 2112 208
WIRE 1472 384 1472 320
WIRE 1664 384 1664 208
WIRE 1664 384 1472 384
WIRE 640 400 640 272
WIRE 640 400 496 400
WIRE 640 432 640 400
WIRE 1904 432 1904 416
WIRE 1840 448 1840 272
WIRE 2112 464 2112 416
WIRE 1296 512 1296 304
WIRE 1296 512 640 512
WIRE 640 544 640 512
WIRE 1584 560 1584 288
WIRE 1584 560 1232 560
WIRE 2112 592 2112 528
WIRE 976 624 976 272
WIRE 976 624 784 624
WIRE 240 640 240 592
WIRE 240 640 128 640
WIRE 640 656 640 624
WIRE 1232 656 1232 560
WIRE 240 720 240 640
WIRE 320 720 240 720
WIRE 464 720 320 720
WIRE 608 720 544 720
WIRE 656 720 608 720
WIRE 240 736 240 720
WIRE 1136 736 1104 736
WIRE 1840 736 1840 528
WIRE 1840 736 1328 736
WIRE 320 752 320 720
WIRE 656 768 656 720
WIRE 880 768 656 768
WIRE 1072 768 960 768
WIRE 1136 768 1072 768
WIRE 608 784 608 720
WIRE 1376 800 1328 800
WIRE 240 832 240 816
WIRE 512 864 416 864
WIRE 1072 864 1072 768
WIRE 1072 864 704 864
WIRE 128 896 128 640
WIRE 416 896 416 864
WIRE 416 896 128 896
WIRE 512 896 416 896
WIRE 1104 912 1104 736
WIRE 1376 912 1376 800
WIRE 1376 912 1104 912
WIRE 752 928 704 928
WIRE 784 960 784 624
WIRE 880 960 784 960
WIRE 1008 960 944 960
WIRE 1376 960 1376 912
WIRE 1376 960 1088 960
WIRE 784 1008 784 960
WIRE 416 1040 416 896
WIRE 608 1040 608 1008
WIRE 608 1040 416 1040
WIRE 784 1104 784 1072
FLAG 304 128 0
FLAG 432 272 0
FLAG 432 400 0
FLAG 240 832 0
FLAG 320 816 0
FLAG 784 1104 0
FLAG 640 656 0
FLAG 1232 880 0
FLAG -16 160 0
FLAG 2112 592 0
FLAG 1472 256 0
FLAG 240 512 0
SYMBOL cap 288 64 R0
SYMATTR InstName C1
SYMATTR Value 220n
SYMBOL cap 432 288 R270
WINDOW 0 32 32 VTop 2
WINDOW 3 0 32 VBottom 2
SYMATTR InstName C2
SYMATTR Value 220n
SYMBOL cap 432 416 R270
WINDOW 0 32 32 VTop 2
WINDOW 3 0 32 VBottom 2
SYMATTR InstName C3
SYMATTR Value 220n
SYMBOL cap 304 752 R0
SYMATTR InstName C4
SYMATTR Value 100n
SYMBOL res 624 64 R0
SYMATTR InstName R1
SYMATTR Value 100k
SYMBOL res 960 64 R0
SYMATTR InstName R2
SYMATTR Value 1000k
SYMBOL res 1408 160 R270
WINDOW 0 32 56 VTop 2
WINDOW 3 0 56 VBottom 2
SYMATTR InstName R3
SYMATTR Value 1000k
SYMBOL res 1152 288 R270
WINDOW 0 32 56 VTop 2
WINDOW 3 0 56 VBottom 2
SYMATTR InstName R4
SYMATTR Value 100k
SYMBOL res 1824 432 R0
SYMATTR InstName R5
SYMATTR Value 1.5k
SYMBOL res 448 736 R270
WINDOW 0 32 56 VTop 2
WINDOW 3 0 55 VBottom 2
SYMATTR InstName R6
SYMATTR Value 100k
SYMBOL res 864 784 R270
WINDOW 0 32 56 VTop 2
WINDOW 3 0 56 VBottom 2
SYMATTR InstName R7
SYMATTR Value 1000k
SYMBOL res 256 832 R180
WINDOW 0 36 76 Left 2
WINDOW 3 36 40 Left 2
SYMATTR InstName R8
SYMATTR Value 100k
SYMBOL res 992 976 R270
WINDOW 0 32 56 VTop 2
WINDOW 3 0 56 VBottom 2
SYMATTR InstName R9
SYMATTR Value 1.5k
SYMBOL diode 944 976 M270
WINDOW 0 32 32 VTop 2
WINDOW 3 0 32 VBottom 2
SYMATTR InstName D1
SYMBOL LED 768 1008 R0
SYMATTR InstName D2
SYMBOL res 624 416 R0
SYMATTR InstName PR1_1
SYMATTR Value R = (time*1e6)+1
SYMBOL res 624 528 R0
SYMATTR InstName PR1_2
SYMATTR Value R = 1e6 - (time*1e6) +1
SYMBOL voltage -16 64 R0
WINDOW 123 0 0 Left 2
WINDOW 39 0 0 Left 2
SYMATTR InstName V1
SYMATTR Value 5
SYMBOL res 2096 320 R0
SYMATTR InstName R10
SYMATTR Value 250
SYMBOL pnp 1888 272 M270
SYMATTR InstName Q1
SYMATTR Value PH_BC327-40
SYMBOL Opamps\\UniversalOpamp2 1472 288 M180
SYMATTR InstName U1
SYMBOL CD4013B 1232 656 R0
SYMATTR InstName U2
SYMBOL CD4013B 608 784 R0
SYMATTR InstName U3
SYMBOL voltage 240 608 R180
WINDOW 123 0 0 Left 2
WINDOW 39 0 0 Left 2
WINDOW 3 -265 142 Left 2
SYMATTR Value PULSE(0 3.5 100m 1u 1u 100m 200m 2)
SYMATTR InstName V2
SYMBOL LED 2096 464 R0
SYMATTR InstName D3
TEXT 32 1096 Left 2 !.tran 1
TEXT 32 1072 Left 2 !.inc CD4000.lib
